
**** 12/19/21 21:03:42 ******* PSpice Lite (March 2016) ******* ID# 10813 ****

 ** Profile: "SCHEMATIC1-fd"  [ C:\Users\ADMIN\Desktop\Testing\bai 5\bai 5-pspicefiles\schematic1\fd.sim ] 


 ****     CIRCUIT DESCRIPTION


******************************************************************************




** Creating circuit file "fd.cir" 
** WARNING: THIS AUTOMATICALLY GENERATED FILE MAY BE OVERWRITTEN BY SUBSEQUENT SIMULATIONS

*Libraries: 
* Profile Libraries :
* Local Libraries :
* From [PSPICE NETLIST] section of C:\Users\ADMIN\AppData\Roaming\SPB_Data\cdssetup\OrCAD_PSpice\17.2.0\PSpice.ini file:
.lib "nomd.lib" 

*Analysis directives: 
.TRAN  0 3 + 100u 3 
-----------$
ERROR(ORPSIM-16152): Invalid number: Error while converting token '+' to double value. Token can be a constant or expression
.OPTIONS ADVCONV
.PROBE64 V(alias(*)) I(alias(*)) W(alias(*)) D(alias(*)) NOISE(alias(*)) 
.INC "..\SCHEMATIC1.net" 



**** INCLUDING SCHEMATIC1.net ****
* source BAI 5
V_V1         N00238 0 10Vdc
R_R1         0 N00238  200k TC=0,0 
R_R2         N00219 N00227  50k TC=0,0 
V_V2         N00219 0 5Vdc
L_L1         N00808 0  100mH IC=0.0000714285 
R_R3         N00808 N00227  20k TC=0,0 
X_U1         N00238 N00227 Sw_tClose PARAMS: tClose=3 ttran=1u Rclosed=0.01
+  Ropen=100000Meg

**** RESUMING fd.cir ****
.END
